Version 4
SHEET 1 880 680
WIRE 176 -208 32 -208
WIRE 32 -96 32 -128
WIRE 176 -48 176 -208
WIRE 176 -16 176 -32
WIRE 112 0 -32 0
WIRE -32 32 -32 0
WIRE 176 80 176 48
WIRE 272 80 176 80
WIRE 176 112 176 80
WIRE 176 240 176 192
FLAG 176 240 0
FLAG 32 -96 0
FLAG 48 32 input
FLAG -32 112 0
FLAG 272 80 Vo
IOPIN 272 80 Out
SYMBOL voltage 32 -224 R0
WINDOW 123 0 0 Left 2
WINDOW 39 0 0 Left 2
SYMATTR InstName V1
SYMATTR Value 5
SYMBOL voltage -32 16 R0
WINDOW 123 0 0 Left 2
WINDOW 39 0 0 Left 2
SYMATTR InstName V2
SYMATTR Value 3.66
SYMBOL ALD1102 112 -48 R0
SYMATTR InstName M1
SYMBOL res 160 96 R0
SYMATTR InstName R1
SYMATTR Value 4310
TEXT -64 152 Left 2 !.op
TEXT -144 352 Left 2 !.lib C:\\Users\\LostWolf\\Desktop\\331lab\\circuit_sim\\ECE331_354.lib
TEXT 472 104 Left 2 !;dc V2 0 5 0.5
