Version 4
SHEET 1 880 680
WIRE -192 -464 -336 -464
WIRE -336 -352 -336 -384
WIRE -192 -272 -192 -464
WIRE -64 -272 -192 -272
WIRE -192 -224 -192 -272
WIRE -256 -176 -400 -176
WIRE -192 -160 -192 -192
WIRE -64 -160 -64 -272
WIRE -64 -160 -192 -160
WIRE -400 -144 -400 -176
WIRE -192 -48 -192 -128
WIRE -176 -48 -192 -48
WIRE -176 80 -176 32
FLAG -176 80 0
FLAG -336 -352 0
FLAG -400 -64 0
SYMBOL voltage -336 -480 R0
WINDOW 123 0 0 Left 2
WINDOW 39 0 0 Left 2
SYMATTR InstName V1
SYMATTR Value 5
SYMBOL ALD1102 -256 -224 R0
SYMATTR InstName M1
SYMBOL voltage -400 -160 R0
WINDOW 3 24 44 Left 2
WINDOW 123 24 124 Left 2
WINDOW 39 0 0 Left 2
SYMATTR Value SINE(3.66 5mv 1000)
SYMATTR InstName Vin
SYMBOL res -192 -64 R0
SYMATTR InstName R1
SYMATTR Value 4310
TEXT -560 168 Left 2 !.lib C:\\Users\\LostWolf\\Desktop\\331lab\\circuit_sim\\ECE331_354.lib
TEXT -560 192 Left 2 !.tran 0 10ms 0 0.01
