Version 4
SHEET 1 880 680
WIRE -32 -720 -96 -720
WIRE -96 -688 -96 -720
WIRE -32 -688 -32 -720
WIRE -96 -576 -96 -608
WIRE -96 -560 -96 -576
WIRE -160 -528 -208 -528
WIRE -208 -464 -208 -528
WIRE -208 -464 -416 -464
WIRE -192 -464 -208 -464
WIRE -96 -464 -96 -480
WIRE -96 -464 -112 -464
WIRE -80 -464 -96 -464
WIRE -96 -448 -96 -464
WIRE -208 -400 -208 -464
WIRE -160 -400 -208 -400
WIRE -416 -368 -416 -384
WIRE -96 -320 -96 -352
WIRE -96 -224 -96 -240
FLAG -32 -688 0
FLAG -96 -224 0
FLAG -80 -464 Vout
IOPIN -80 -464 Out
FLAG -416 -368 0
SYMBOL voltage -96 -592 R180
WINDOW 0 24 96 Left 2
WINDOW 3 24 16 Left 2
WINDOW 123 0 0 Left 2
WINDOW 39 0 0 Left 2
SYMATTR InstName V1
SYMATTR Value 5
SYMBOL IRF9510 -160 -576 R0
SYMATTR InstName U1
SYMBOL IRF510 -160 -448 R0
SYMATTR InstName U2
SYMBOL res -96 -480 R90
WINDOW 0 0 56 VBottom 2
WINDOW 3 32 56 VTop 2
SYMATTR InstName R1
SYMATTR Value 5k
SYMBOL voltage -96 -224 R180
WINDOW 0 24 96 Left 2
WINDOW 3 24 16 Left 2
WINDOW 123 0 0 Left 2
WINDOW 39 0 0 Left 2
SYMATTR InstName V2
SYMATTR Value 5
SYMBOL voltage -416 -480 R0
WINDOW 123 0 0 Left 2
WINDOW 39 0 0 Left 2
SYMATTR InstName V3
SYMATTR Value SINE(0 0.5 1000)
TEXT -176 -128 Left 2 !.tran 0 50m 0 10e-6
TEXT -264 -56 Left 2 !.lib E:\\331lab\\lab5\\ECE331_354.lib
