Version 4
SHEET 1 880 680
WIRE 272 -96 128 -96
WIRE 272 -64 272 -96
WIRE 272 48 272 16
WIRE 128 80 128 -96
WIRE 64 128 0 128
WIRE 0 208 0 128
WIRE 0 208 -64 208
WIRE 128 208 128 176
WIRE 208 208 128 208
WIRE 352 208 272 208
WIRE -64 240 -64 208
WIRE 128 240 128 208
WIRE 128 256 128 240
WIRE 352 256 352 208
WIRE 0 288 0 208
WIRE 64 288 0 288
WIRE 128 432 128 336
FLAG 272 48 0
FLAG 128 432 0
FLAG 352 336 0
FLAG -64 320 0
FLAG -32 352 0
SYMBOL IRF510 64 80 R0
SYMATTR InstName U1
SYMBOL IRF9510 64 240 R0
SYMATTR InstName U2
SYMBOL voltage 272 -80 R0
WINDOW 123 0 0 Left 2
WINDOW 39 0 0 Left 2
SYMATTR InstName V1
SYMATTR Value 12
SYMBOL cap 272 192 R90
WINDOW 0 0 32 VBottom 2
WINDOW 3 32 32 VTop 2
SYMATTR InstName C1
SYMATTR Value 0.000398
SYMBOL res 336 240 R0
SYMATTR InstName R1
SYMATTR Value 8
SYMBOL voltage -64 224 R0
WINDOW 123 0 0 Left 2
WINDOW 39 0 0 Left 2
SYMATTR InstName V2
SYMATTR Value SINE(6 6 1k)
TEXT -72 424 Left 2 !.tran 50ms
TEXT 280 424 Left 2 !.lib E:\\331lab\\lab3\\ECE331_354.lib
